OS:Version,
  {990ad3eb-26e2-4b85-9afc-9f5896fc040e}, !- Handle
  2.2.1;                                  !- Version Identifier
  
OS:BuildingStory,
  {db75d8b1-6332-4998-b7c2-ad46d4bbd08b}, !- Handle
  Building Story 1,                       !- Name
  0,                                      !- Nominal Z Coordinate {m}
  ,                                       !- Nominal Floor to Floor Height {m}
  ,                                       !- Default Construction Set Name
  ,                                       !- Default Schedule Set Name
  ;                                       !- Group Rendering Name

OS:Building,
  {c23ded4b-6f18-4e30-b6db-cc00e1198751}, !- Handle
  Warehouse,                              !- Name
  ,                                       !- Building Sector Type
  ,                                       !- North Axis {deg}
  ,                                       !- Nominal Floor to Floor Height {m}
  ,                                       !- Space Type Name
  ,                                       !- Default Construction Set Name
  ,                                       !- Default Schedule Set Name
  1,                                      !- Standards Number of Stories
  1,                                      !- Standards Number of Above Ground Stories
  Warehouse;                              !- Standards Building Type

OS:ThermalZone,
  {1833e257-ca02-4033-b7e1-a9b7f59c4fbe}, !- Handle
  Warehouse,                              !- Name
  ,                                       !- Multiplier
  ,                                       !- Ceiling Height {m}
  ,                                       !- Volume {m3}
  ,                                       !- Floor Area {m2}
  ,                                       !- Zone Inside Convection Algorithm
  ,                                       !- Zone Outside Convection Algorithm
  ,                                       !- Zone Conditioning Equipment List Name
  ,                                       !- Zone Air Inlet Port List
  ,                                       !- Zone Air Exhaust Port List
  ,                                       !- Zone Air Node Name
  ,                                       !- Zone Return Air Node Name
  ,                                       !- Primary Daylighting Control Name
  ,                                       !- Fraction of Zone Controlled by Primary Daylighting Control
  ,                                       !- Secondary Daylighting Control Name
  ,                                       !- Fraction of Zone Controlled by Secondary Daylighting Control
  ,                                       !- Illuminance Map Name
  ,                                       !- Group Rendering Name
  ,                                       !- Thermostat Name
  No;                                     !- Use Ideal Air Loads

OS:Surface,
  {dcc10c35-212a-4ba7-8909-e38fa0c8d3e8}, !- Handle
  Fine Storage Roof,                      !- Name
  RoofCeiling,                            !- Surface Type
  ,                                       !- Construction Name
  {cdd6a95f-f907-4c0e-817d-962525d358d0}, !- Space Name
  Outdoors,                               !- Outside Boundary Condition
  ,                                       !- Outside Boundary Condition Object
  SunExposed,                             !- Sun Exposure
  WindExposed,                            !- Wind Exposure
  ,                                       !- View Factor to Ground
  ,                                       !- Number of Vertices
  45.7177703814647, 0, 8.53398380454007,  !- X,Y,Z Vertex 1 {m}
  45.7177703814647, 30.4785135876431, 8.53398380454007, !- X,Y,Z Vertex 2 {m}
  0, 30.4785135876431, 8.53398380454007,  !- X,Y,Z Vertex 3 {m}
  0, 0, 8.53398380454007;                 !- X,Y,Z Vertex 4 {m}

OS:Surface,
  {516ff702-eb03-4a25-9228-e1ad9dc5895c}, !- Handle
  Bulk Storage Roof,                      !- Name
  RoofCeiling,                            !- Surface Type
  ,                                       !- Construction Name
  {39655c19-15b3-4081-92c2-4613ae84d8e6}, !- Space Name
  Outdoors,                               !- Outside Boundary Condition
  ,                                       !- Outside Boundary Condition Object
  SunExposed,                             !- Sun Exposure
  WindExposed,                            !- Wind Exposure
  ,                                       !- View Factor to Ground
  ,                                       !- Number of Vertices
  45.7177703814647, 30.4785135876431, 8.53398380454007, !- X,Y,Z Vertex 1 {m}
  45.7177703814647, 100.579094839222, 8.53398380454007, !- X,Y,Z Vertex 2 {m}
  0, 100.579094839222, 8.53398380454007,  !- X,Y,Z Vertex 3 {m}
  0, 30.4785135876431, 8.53398380454007;  !- X,Y,Z Vertex 4 {m}

OS:SubSurface,
  {6dac61d8-7411-4423-985c-36b2c5e8b7cf}, !- Handle
  Skylight_r2c3,                          !- Name
  Skylight,                               !- Sub Surface Type
  ,                                       !- Construction Name
  {516ff702-eb03-4a25-9228-e1ad9dc5895c}, !- Surface Name
  ,                                       !- Outside Boundary Condition Object
  ,                                       !- View Factor to Ground
  ,                                       !- Shading Control Name
  ,                                       !- Frame and Divider Name
  ,                                       !- Multiplier
  ,                                       !- Number of Vertices
  37.39673, 51.712914, 8.533984,          !- X,Y,Z Vertex 1 {m}
  37.39673, 52.932114, 8.533984,          !- X,Y,Z Vertex 2 {m}
  36.17753, 52.932114, 8.533984,          !- X,Y,Z Vertex 3 {m}
  36.17753, 51.712914, 8.533984;          !- X,Y,Z Vertex 4 {m}

OS:SubSurface,
  {cc340669-2635-4608-ad68-8448960033df}, !- Handle
  Skylight_r7c3,                          !- Name
  Skylight,                               !- Sub Surface Type
  ,                                       !- Construction Name
  {516ff702-eb03-4a25-9228-e1ad9dc5895c}, !- Surface Name
  ,                                       !- Outside Boundary Condition Object
  ,                                       !- View Factor to Ground
  ,                                       !- Shading Control Name
  ,                                       !- Frame and Divider Name
  ,                                       !- Multiplier
  ,                                       !- Number of Vertices
  9.50753, 51.712914, 8.533984,           !- X,Y,Z Vertex 1 {m}
  9.50753, 52.932114, 8.533984,           !- X,Y,Z Vertex 2 {m}
  8.28833, 52.932114, 8.533984,           !- X,Y,Z Vertex 3 {m}
  8.28833, 51.712914, 8.533984;           !- X,Y,Z Vertex 4 {m}

OS:SubSurface,
  {ca7079b5-217f-4c8e-9b5f-7ce447ae706c}, !- Handle
  Skylight_r1c4,                          !- Name
  Skylight,                               !- Sub Surface Type
  ,                                       !- Construction Name
  {516ff702-eb03-4a25-9228-e1ad9dc5895c}, !- Surface Name
  ,                                       !- Outside Boundary Condition Object
  ,                                       !- View Factor to Ground
  ,                                       !- Shading Control Name
  ,                                       !- Frame and Divider Name
  ,                                       !- Multiplier
  ,                                       !- Number of Vertices
  42.97457, 60.348914, 8.533984,          !- X,Y,Z Vertex 1 {m}
  42.97457, 61.568114, 8.533984,          !- X,Y,Z Vertex 2 {m}
  41.75537, 61.568114, 8.533984,          !- X,Y,Z Vertex 3 {m}
  41.75537, 60.348914, 8.533984;          !- X,Y,Z Vertex 4 {m}

OS:SubSurface,
  {b189551d-e42f-4762-b7d3-22cefb330f22}, !- Handle
  Skylight_r5c1,                          !- Name
  Skylight,                               !- Sub Surface Type
  ,                                       !- Construction Name
  {516ff702-eb03-4a25-9228-e1ad9dc5895c}, !- Surface Name
  ,                                       !- Outside Boundary Condition Object
  ,                                       !- View Factor to Ground
  ,                                       !- Shading Control Name
  ,                                       !- Frame and Divider Name
  ,                                       !- Multiplier
  ,                                       !- Number of Vertices
  20.66321, 34.440914, 8.533984,          !- X,Y,Z Vertex 1 {m}
  20.66321, 35.660114, 8.533984,          !- X,Y,Z Vertex 2 {m}
  19.44401, 35.660114, 8.533984,          !- X,Y,Z Vertex 3 {m}
  19.44401, 34.440914, 8.533984;          !- X,Y,Z Vertex 4 {m}

OS:SubSurface,
  {9f541237-384a-4267-84c0-29c65974973b}, !- Handle
  Skylight_r1c2,                          !- Name
  Skylight,                               !- Sub Surface Type
  ,                                       !- Construction Name
  {516ff702-eb03-4a25-9228-e1ad9dc5895c}, !- Surface Name
  ,                                       !- Outside Boundary Condition Object
  ,                                       !- View Factor to Ground
  ,                                       !- Shading Control Name
  ,                                       !- Frame and Divider Name
  ,                                       !- Multiplier
  ,                                       !- Number of Vertices
  42.97457, 43.076914, 8.533984,          !- X,Y,Z Vertex 1 {m}
  42.97457, 44.296114, 8.533984,          !- X,Y,Z Vertex 2 {m}
  41.75537, 44.296114, 8.533984,          !- X,Y,Z Vertex 3 {m}
  41.75537, 43.076914, 8.533984;          !- X,Y,Z Vertex 4 {m}

OS:SubSurface,
  {2d7ae645-bbe8-4865-b17c-c19f599fae46}, !- Handle
  Skylight_r4c3,                          !- Name
  Skylight,                               !- Sub Surface Type
  ,                                       !- Construction Name
  {516ff702-eb03-4a25-9228-e1ad9dc5895c}, !- Surface Name
  ,                                       !- Outside Boundary Condition Object
  ,                                       !- View Factor to Ground
  ,                                       !- Shading Control Name
  ,                                       !- Frame and Divider Name
  ,                                       !- Multiplier
  ,                                       !- Number of Vertices
  26.24105, 51.712914, 8.533984,          !- X,Y,Z Vertex 1 {m}
  26.24105, 52.932114, 8.533984,          !- X,Y,Z Vertex 2 {m}
  25.02185, 52.932114, 8.533984,          !- X,Y,Z Vertex 3 {m}
  25.02185, 51.712914, 8.533984;          !- X,Y,Z Vertex 4 {m}

OS:SubSurface,
  {d7dee294-b5d7-44b5-95a1-700bae533d52}, !- Handle
  Skylight_r5c2,                          !- Name
  Skylight,                               !- Sub Surface Type
  ,                                       !- Construction Name
  {516ff702-eb03-4a25-9228-e1ad9dc5895c}, !- Surface Name
  ,                                       !- Outside Boundary Condition Object
  ,                                       !- View Factor to Ground
  ,                                       !- Shading Control Name
  ,                                       !- Frame and Divider Name
  ,                                       !- Multiplier
  ,                                       !- Number of Vertices
  20.66321, 43.076914, 8.533984,          !- X,Y,Z Vertex 1 {m}
  20.66321, 44.296114, 8.533984,          !- X,Y,Z Vertex 2 {m}
  19.44401, 44.296114, 8.533984,          !- X,Y,Z Vertex 3 {m}
  19.44401, 43.076914, 8.533984;          !- X,Y,Z Vertex 4 {m}

OS:SubSurface,
  {eafc8f7a-abc5-4cd4-9dbf-f615e529ab78}, !- Handle
  Skylight_r3c1,                          !- Name
  Skylight,                               !- Sub Surface Type
  ,                                       !- Construction Name
  {516ff702-eb03-4a25-9228-e1ad9dc5895c}, !- Surface Name
  ,                                       !- Outside Boundary Condition Object
  ,                                       !- View Factor to Ground
  ,                                       !- Shading Control Name
  ,                                       !- Frame and Divider Name
  ,                                       !- Multiplier
  ,                                       !- Number of Vertices
  31.81889, 34.440914, 8.533984,          !- X,Y,Z Vertex 1 {m}
  31.81889, 35.660114, 8.533984,          !- X,Y,Z Vertex 2 {m}
  30.59969, 35.660114, 8.533984,          !- X,Y,Z Vertex 3 {m}
  30.59969, 34.440914, 8.533984;          !- X,Y,Z Vertex 4 {m}

OS:SubSurface,
  {71b64072-759e-42a0-8204-04b81749a0fb}, !- Handle
  Skylight_r3c3,                          !- Name
  Skylight,                               !- Sub Surface Type
  ,                                       !- Construction Name
  {516ff702-eb03-4a25-9228-e1ad9dc5895c}, !- Surface Name
  ,                                       !- Outside Boundary Condition Object
  ,                                       !- View Factor to Ground
  ,                                       !- Shading Control Name
  ,                                       !- Frame and Divider Name
  ,                                       !- Multiplier
  ,                                       !- Number of Vertices
  31.81889, 60.348914, 8.533984,          !- X,Y,Z Vertex 1 {m}
  31.81889, 61.568114, 8.533984,          !- X,Y,Z Vertex 2 {m}
  30.59969, 61.568114, 8.533984,          !- X,Y,Z Vertex 3 {m}
  30.59969, 60.348914, 8.533984;          !- X,Y,Z Vertex 4 {m}

OS:SubSurface,
  {65a4927d-efbe-4ffa-bee2-c79215c46ccd}, !- Handle
  Skylight_r4c1,                          !- Name
  Skylight,                               !- Sub Surface Type
  ,                                       !- Construction Name
  {516ff702-eb03-4a25-9228-e1ad9dc5895c}, !- Surface Name
  ,                                       !- Outside Boundary Condition Object
  ,                                       !- View Factor to Ground
  ,                                       !- Shading Control Name
  ,                                       !- Frame and Divider Name
  ,                                       !- Multiplier
  ,                                       !- Number of Vertices
  26.24105, 34.440914, 8.533984,          !- X,Y,Z Vertex 1 {m}
  26.24105, 35.660114, 8.533984,          !- X,Y,Z Vertex 2 {m}
  25.02185, 35.660114, 8.533984,          !- X,Y,Z Vertex 3 {m}
  25.02185, 34.440914, 8.533984;          !- X,Y,Z Vertex 4 {m}

OS:SubSurface,
  {000ddd2c-3ea4-4776-9e8e-e4d848761cac}, !- Handle
  Skylight_r6c1,                          !- Name
  Skylight,                               !- Sub Surface Type
  ,                                       !- Construction Name
  {516ff702-eb03-4a25-9228-e1ad9dc5895c}, !- Surface Name
  ,                                       !- Outside Boundary Condition Object
  ,                                       !- View Factor to Ground
  ,                                       !- Shading Control Name
  ,                                       !- Frame and Divider Name
  ,                                       !- Multiplier
  ,                                       !- Number of Vertices
  15.08537, 34.440914, 8.533984,          !- X,Y,Z Vertex 1 {m}
  15.08537, 35.660114, 8.533984,          !- X,Y,Z Vertex 2 {m}
  13.86617, 35.660114, 8.533984,          !- X,Y,Z Vertex 3 {m}
  13.86617, 34.440914, 8.533984;          !- X,Y,Z Vertex 4 {m}

OS:SubSurface,
  {74e5cc19-6b77-40e3-bb48-dd2003bc1d25}, !- Handle
  FineStorage_skylight_5,                 !- Name
  Skylight,                               !- Sub Surface Type
  ,                                       !- Construction Name
  {dcc10c35-212a-4ba7-8909-e38fa0c8d3e8}, !- Surface Name
  ,                                       !- Outside Boundary Condition Object
  ,                                       !- View Factor to Ground
  ,                                       !- Shading Control Name
  ,                                       !- Frame and Divider Name
  ,                                       !- Multiplier
  ,                                       !- Number of Vertices
  40.6146, 26.058914, 8.533984,           !- X,Y,Z Vertex 1 {m}
  40.6146, 27.278114, 8.533984,           !- X,Y,Z Vertex 2 {m}
  39.3954, 27.278114, 8.533984,           !- X,Y,Z Vertex 3 {m}
  39.3954, 26.058914, 8.533984;           !- X,Y,Z Vertex 4 {m}

OS:SubSurface,
  {5bb15698-f168-4579-82ad-82ac03a40e93}, !- Handle
  Skylight_r7c1,                          !- Name
  Skylight,                               !- Sub Surface Type
  ,                                       !- Construction Name
  {516ff702-eb03-4a25-9228-e1ad9dc5895c}, !- Surface Name
  ,                                       !- Outside Boundary Condition Object
  ,                                       !- View Factor to Ground
  ,                                       !- Shading Control Name
  ,                                       !- Frame and Divider Name
  ,                                       !- Multiplier
  ,                                       !- Number of Vertices
  9.50753, 34.440914, 8.533984,           !- X,Y,Z Vertex 1 {m}
  9.50753, 35.660114, 8.533984,           !- X,Y,Z Vertex 2 {m}
  8.28833, 35.660114, 8.533984,           !- X,Y,Z Vertex 3 {m}
  8.28833, 34.440914, 8.533984;           !- X,Y,Z Vertex 4 {m}

OS:SubSurface,
  {723b4775-b4d1-44f3-962a-910d9d76a9e6}, !- Handle
  FineStorage_skylight_14,                !- Name
  Skylight,                               !- Sub Surface Type
  ,                                       !- Construction Name
  {dcc10c35-212a-4ba7-8909-e38fa0c8d3e8}, !- Surface Name
  ,                                       !- Outside Boundary Condition Object
  ,                                       !- View Factor to Ground
  ,                                       !- Shading Control Name
  ,                                       !- Frame and Divider Name
  ,                                       !- Multiplier
  ,                                       !- Number of Vertices
  17.7546, 26.058914, 8.533984,           !- X,Y,Z Vertex 1 {m}
  17.7546, 27.278114, 8.533984,           !- X,Y,Z Vertex 2 {m}
  16.5354, 27.278114, 8.533984,           !- X,Y,Z Vertex 3 {m}
  16.5354, 26.058914, 8.533984;           !- X,Y,Z Vertex 4 {m}

OS:SubSurface,
  {cad599ac-bdde-493c-83a4-f9617becb319}, !- Handle
  FineStorage_skylight_6,                 !- Name
  Skylight,                               !- Sub Surface Type
  ,                                       !- Construction Name
  {dcc10c35-212a-4ba7-8909-e38fa0c8d3e8}, !- Surface Name
  ,                                       !- Outside Boundary Condition Object
  ,                                       !- View Factor to Ground
  ,                                       !- Shading Control Name
  ,                                       !- Frame and Divider Name
  ,                                       !- Multiplier
  ,                                       !- Number of Vertices
  17.7546, 18.438914, 8.533984,           !- X,Y,Z Vertex 1 {m}
  17.7546, 19.658114, 8.533984,           !- X,Y,Z Vertex 2 {m}
  16.5354, 19.658114, 8.533984,           !- X,Y,Z Vertex 3 {m}
  16.5354, 18.438914, 8.533984;           !- X,Y,Z Vertex 4 {m}

OS:SubSurface,
  {9068a0fd-e4ed-49cc-abe3-df5dbff873c7}, !- Handle
  Skylight_r2c1,                          !- Name
  Skylight,                               !- Sub Surface Type
  ,                                       !- Construction Name
  {516ff702-eb03-4a25-9228-e1ad9dc5895c}, !- Surface Name
  ,                                       !- Outside Boundary Condition Object
  ,                                       !- View Factor to Ground
  ,                                       !- Shading Control Name
  ,                                       !- Frame and Divider Name
  ,                                       !- Multiplier
  ,                                       !- Number of Vertices
  37.39673, 34.440914, 8.533984,          !- X,Y,Z Vertex 1 {m}
  37.39673, 35.660114, 8.533984,          !- X,Y,Z Vertex 2 {m}
  36.17753, 35.660114, 8.533984,          !- X,Y,Z Vertex 3 {m}
  36.17753, 34.440914, 8.533984;          !- X,Y,Z Vertex 4 {m}

OS:SubSurface,
  {acb38544-5d65-4bc8-9c65-f5b58d540d1a}, !- Handle
  Skylight_r6c3,                          !- Name
  Skylight,                               !- Sub Surface Type
  ,                                       !- Construction Name
  {516ff702-eb03-4a25-9228-e1ad9dc5895c}, !- Surface Name
  ,                                       !- Outside Boundary Condition Object
  ,                                       !- View Factor to Ground
  ,                                       !- Shading Control Name
  ,                                       !- Frame and Divider Name
  ,                                       !- Multiplier
  ,                                       !- Number of Vertices
  15.08537, 51.712914, 8.533984,          !- X,Y,Z Vertex 1 {m}
  15.08537, 52.932114, 8.533984,          !- X,Y,Z Vertex 2 {m}
  13.86617, 52.932114, 8.533984,          !- X,Y,Z Vertex 3 {m}
  13.86617, 51.712914, 8.533984;          !- X,Y,Z Vertex 4 {m}

OS:SubSurface,
  {4163e0f8-32c9-4f3c-a01f-27d86e349545}, !- Handle
  Skylight_r3c2,                          !- Name
  Skylight,                               !- Sub Surface Type
  ,                                       !- Construction Name
  {516ff702-eb03-4a25-9228-e1ad9dc5895c}, !- Surface Name
  ,                                       !- Outside Boundary Condition Object
  ,                                       !- View Factor to Ground
  ,                                       !- Shading Control Name
  ,                                       !- Frame and Divider Name
  ,                                       !- Multiplier
  ,                                       !- Number of Vertices
  31.81889, 43.076914, 8.533984,          !- X,Y,Z Vertex 1 {m}
  31.81889, 44.296114, 8.533984,          !- X,Y,Z Vertex 2 {m}
  30.59969, 44.296114, 8.533984,          !- X,Y,Z Vertex 3 {m}
  30.59969, 43.076914, 8.533984;          !- X,Y,Z Vertex 4 {m}

OS:SubSurface,
  {fbc62a85-f0b5-40f2-be1b-0a363ae6f388}, !- Handle
  FineStorage_skylight_10,                !- Name
  Skylight,                               !- Sub Surface Type
  ,                                       !- Construction Name
  {dcc10c35-212a-4ba7-8909-e38fa0c8d3e8}, !- Surface Name
  ,                                       !- Outside Boundary Condition Object
  ,                                       !- View Factor to Ground
  ,                                       !- Shading Control Name
  ,                                       !- Frame and Divider Name
  ,                                       !- Multiplier
  ,                                       !- Number of Vertices
  40.6146, 18.438914, 8.533984,           !- X,Y,Z Vertex 1 {m}
  40.6146, 19.658114, 8.533984,           !- X,Y,Z Vertex 2 {m}
  39.3954, 19.658114, 8.533984,           !- X,Y,Z Vertex 3 {m}
  39.3954, 18.438914, 8.533984;           !- X,Y,Z Vertex 4 {m}

OS:SubSurface,
  {a3206222-0b02-4aa5-bcc4-af8f70e1eec4}, !- Handle
  FineStorage_skylight_12,                !- Name
  Skylight,                               !- Sub Surface Type
  ,                                       !- Construction Name
  {dcc10c35-212a-4ba7-8909-e38fa0c8d3e8}, !- Surface Name
  ,                                       !- Outside Boundary Condition Object
  ,                                       !- View Factor to Ground
  ,                                       !- Shading Control Name
  ,                                       !- Frame and Divider Name
  ,                                       !- Multiplier
  ,                                       !- Number of Vertices
  6.3246, 26.058914, 8.533984,            !- X,Y,Z Vertex 1 {m}
  6.3246, 27.278114, 8.533984,            !- X,Y,Z Vertex 2 {m}
  5.1054, 27.278114, 8.533984,            !- X,Y,Z Vertex 3 {m}
  5.1054, 26.058914, 8.533984;            !- X,Y,Z Vertex 4 {m}

OS:SubSurface,
  {26cfb3f0-e78e-41d5-8957-e61cf58a1db9}, !- Handle
  Skylight_r2c4,                          !- Name
  Skylight,                               !- Sub Surface Type
  ,                                       !- Construction Name
  {516ff702-eb03-4a25-9228-e1ad9dc5895c}, !- Surface Name
  ,                                       !- Outside Boundary Condition Object
  ,                                       !- View Factor to Ground
  ,                                       !- Shading Control Name
  ,                                       !- Frame and Divider Name
  ,                                       !- Multiplier
  ,                                       !- Number of Vertices
  37.39673, 60.348914, 8.533984,          !- X,Y,Z Vertex 1 {m}
  37.39673, 61.568114, 8.533984,          !- X,Y,Z Vertex 2 {m}
  36.17753, 61.568114, 8.533984,          !- X,Y,Z Vertex 3 {m}
  36.17753, 60.348914, 8.533984;          !- X,Y,Z Vertex 4 {m}

OS:SubSurface,
  {b269fc4f-b539-46ab-a05e-93c4dd91399b}, !- Handle
  FineStorage_skylight_13,                !- Name
  Skylight,                               !- Sub Surface Type
  ,                                       !- Construction Name
  {dcc10c35-212a-4ba7-8909-e38fa0c8d3e8}, !- Surface Name
  ,                                       !- Outside Boundary Condition Object
  ,                                       !- View Factor to Ground
  ,                                       !- Shading Control Name
  ,                                       !- Frame and Divider Name
  ,                                       !- Multiplier
  ,                                       !- Number of Vertices
  12.0396, 26.058914, 8.533984,           !- X,Y,Z Vertex 1 {m}
  12.0396, 27.278114, 8.533984,           !- X,Y,Z Vertex 2 {m}
  10.8204, 27.278114, 8.533984,           !- X,Y,Z Vertex 3 {m}
  10.8204, 26.058914, 8.533984;           !- X,Y,Z Vertex 4 {m}

OS:SubSurface,
  {ff679961-81cf-4795-9c24-deb699dd97b4}, !- Handle
  FineStorage_skylight_7,                 !- Name
  Skylight,                               !- Sub Surface Type
  ,                                       !- Construction Name
  {dcc10c35-212a-4ba7-8909-e38fa0c8d3e8}, !- Surface Name
  ,                                       !- Outside Boundary Condition Object
  ,                                       !- View Factor to Ground
  ,                                       !- Shading Control Name
  ,                                       !- Frame and Divider Name
  ,                                       !- Multiplier
  ,                                       !- Number of Vertices
  23.4696, 18.438914, 8.533984,           !- X,Y,Z Vertex 1 {m}
  23.4696, 19.658114, 8.533984,           !- X,Y,Z Vertex 2 {m}
  22.2504, 19.658114, 8.533984,           !- X,Y,Z Vertex 3 {m}
  22.2504, 18.438914, 8.533984;           !- X,Y,Z Vertex 4 {m}

OS:SubSurface,
  {63248e82-ac72-47a3-bc8f-4fca4c4cc602}, !- Handle
  FineStorage_skylight_11,                !- Name
  Skylight,                               !- Sub Surface Type
  ,                                       !- Construction Name
  {dcc10c35-212a-4ba7-8909-e38fa0c8d3e8}, !- Surface Name
  ,                                       !- Outside Boundary Condition Object
  ,                                       !- View Factor to Ground
  ,                                       !- Shading Control Name
  ,                                       !- Frame and Divider Name
  ,                                       !- Multiplier
  ,                                       !- Number of Vertices
  6.3246, 18.438914, 8.533984,            !- X,Y,Z Vertex 1 {m}
  6.3246, 19.658114, 8.533984,            !- X,Y,Z Vertex 2 {m}
  5.1054, 19.658114, 8.533984,            !- X,Y,Z Vertex 3 {m}
  5.1054, 18.438914, 8.533984;            !- X,Y,Z Vertex 4 {m}

OS:SubSurface,
  {06c61cc1-a825-4c84-afd9-2f77dd05133f}, !- Handle
  Skylight_r1c3,                          !- Name
  Skylight,                               !- Sub Surface Type
  ,                                       !- Construction Name
  {516ff702-eb03-4a25-9228-e1ad9dc5895c}, !- Surface Name
  ,                                       !- Outside Boundary Condition Object
  ,                                       !- View Factor to Ground
  ,                                       !- Shading Control Name
  ,                                       !- Frame and Divider Name
  ,                                       !- Multiplier
  ,                                       !- Number of Vertices
  42.97457, 51.712914, 8.533984,          !- X,Y,Z Vertex 1 {m}
  42.97457, 52.932114, 8.533984,          !- X,Y,Z Vertex 2 {m}
  41.75537, 52.932114, 8.533984,          !- X,Y,Z Vertex 3 {m}
  41.75537, 51.712914, 8.533984;          !- X,Y,Z Vertex 4 {m}

OS:SubSurface,
  {0a0502e2-60ef-4c6a-b711-c7eef0da342c}, !- Handle
  Skylight_r1c1,                          !- Name
  Skylight,                               !- Sub Surface Type
  ,                                       !- Construction Name
  {516ff702-eb03-4a25-9228-e1ad9dc5895c}, !- Surface Name
  ,                                       !- Outside Boundary Condition Object
  ,                                       !- View Factor to Ground
  ,                                       !- Shading Control Name
  ,                                       !- Frame and Divider Name
  ,                                       !- Multiplier
  ,                                       !- Number of Vertices
  42.97457, 34.440914, 8.533984,          !- X,Y,Z Vertex 1 {m}
  42.97457, 35.660114, 8.533984,          !- X,Y,Z Vertex 2 {m}
  41.75537, 35.660114, 8.533984,          !- X,Y,Z Vertex 3 {m}
  41.75537, 34.440914, 8.533984;          !- X,Y,Z Vertex 4 {m}

OS:SubSurface,
  {16519e3d-8e15-4801-a2f2-c20194bff92d}, !- Handle
  Skylight_r5c4,                          !- Name
  Skylight,                               !- Sub Surface Type
  ,                                       !- Construction Name
  {516ff702-eb03-4a25-9228-e1ad9dc5895c}, !- Surface Name