OS:Version,
  {990ad3eb-26e2-4b85-9afc-9f5896fc040e}, !- Handle
  2.2.1;                                  !- Version Identifier
  
OS:BuildingStory,
  {db75d8b1-6332-4998-b7c2-ad46d4bbd08b}, !- Handle
  Building Story 1,                       !- Name
  0,                                      !- Nominal Z Coordinate {m}
  ,                                       !- Nominal Floor to Floor Height {m}
  ,                                       !- Default Construction Set Name
  ,                                       !- Default Schedule Set Name
  ;                                       !- Group Rendering Name

OS:Building,
  {c23ded4b-6f18-4e30-b6db-cc00e1198751}, !- Handle
  SecondarySchool,                        !- Name
  ,                                       !- Building Sector Type
  ,                                       !- North Axis {deg}
  ,                                       !- Nominal Floor to Floor Height {m}
  ,                                       !- Space Type Name
  ,                                       !- Default Construction Set Name
  ,                                       !- Default Schedule Set Name
  1,                                      !- Standards Number of Stories
  1,                                      !- Standards Number of Above Ground Stories
  School;                                 !- Standards Building Type

OS:ThermalZone,
  {1833e257-ca02-4033-b7e1-a9b7f59c4fbe}, !- Handle
  SecondarySchool,                        !- Name
  ,                                       !- Multiplier
  ,                                       !- Ceiling Height {m}
  ,                                       !- Volume {m3}
  ,                                       !- Floor Area {m2}
  ,                                       !- Zone Inside Convection Algorithm
  ,                                       !- Zone Outside Convection Algorithm
  ,                                       !- Zone Conditioning Equipment List Name
  ,                                       !- Zone Air Inlet Port List
  ,                                       !- Zone Air Exhaust Port List
  ,                                       !- Zone Air Node Name
  ,                                       !- Zone Return Air Node Name
  ,                                       !- Primary Daylighting Control Name
  ,                                       !- Fraction of Zone Controlled by Primary Daylighting Control
  ,                                       !- Secondary Daylighting Control Name
  ,                                       !- Fraction of Zone Controlled by Secondary Daylighting Control
  ,                                       !- Illuminance Map Name
  ,                                       !- Group Rendering Name
  ,                                       !- Thermostat Name
  No;                                     !- Use Ideal Air Loads

OS:Surface,
  {4b4b6a4c-1a14-40ab-ad3b-d253940966b3}, !- Handle
  Gym_ZN_1_FLR_2_Ceiling,                 !- Name
  RoofCeiling,                            !- Surface Type
  ,                                       !- Construction Name
  {5b6d79a1-ca37-4ac2-86a5-1120aebe4e62}, !- Space Name
  Outdoors,                               !- Outside Boundary Condition
  ,                                       !- Outside Boundary Condition Object
  SunExposed,                             !- Sun Exposure
  WindExposed,                            !- Wind Exposure
  ,                                       !- View Factor to Ground
  ,                                       !- Number of Vertices
  38, 0, 8,                               !- X,Y,Z Vertex 1 {m}
  38, 52, 8,                              !- X,Y,Z Vertex 2 {m}
  0, 52, 8,                               !- X,Y,Z Vertex 3 {m}
  0, 0, 8;                                !- X,Y,Z Vertex 4 {m}

OS:Surface,
  {89fd87b6-ce0e-4e53-82e1-edc9a39bf1aa}, !- Handle
  Aux_Gym_ZN_1_FLR_2_Ceiling,             !- Name
  RoofCeiling,                            !- Surface Type
  ,                                       !- Construction Name
  {8e6e73b2-43d7-4a77-a53a-c3b09d195d59}, !- Space Name
  Outdoors,                               !- Outside Boundary Condition
  ,                                       !- Outside Boundary Condition Object
  SunExposed,                             !- Sun Exposure
  WindExposed,                            !- Wind Exposure
  ,                                       !- View Factor to Ground
  ,                                       !- Number of Vertices
  24, 0, 8,                               !- X,Y,Z Vertex 1 {m}
  24, 52, 8,                              !- X,Y,Z Vertex 2 {m}
  0, 52, 8,                               !- X,Y,Z Vertex 3 {m}
  0, 0, 8;                                !- X,Y,Z Vertex 4 {m}

OS:SubSurface,
  {0056072b-1ce6-4a75-87d6-7537dd03a3d1}, !- Handle
  Gym_ZN_1_FLR_2_skylight_54,             !- Name
  Skylight,                               !- Sub Surface Type
  ,                                       !- Construction Name
  {4b4b6a4c-1a14-40ab-ad3b-d253940966b3}, !- Surface Name
  ,                                       !- Outside Boundary Condition Object
  ,                                       !- View Factor to Ground
  ,                                       !- Shading Control Name
  ,                                       !- Frame and Divider Name
  1,                                      !- Multiplier
  ,                                       !- Number of Vertices
  35.443, 48.5015, 8,                     !- X,Y,Z Vertex 1 {m}
  35.443, 49.7207, 8,                     !- X,Y,Z Vertex 2 {m}
  34.224, 49.7207, 8,                     !- X,Y,Z Vertex 3 {m}
  34.224, 48.5015, 8;                     !- X,Y,Z Vertex 4 {m}
  
OS:SubSurface,
  {a94e4d5d-5d55-4567-9d82-f61b76928af3}, !- Handle
  Gym_ZN_1_FLR_2_skylight_48,             !- Name
  Skylight,                               !- Sub Surface Type
  ,                                       !- Construction Name
  {4b4b6a4c-1a14-40ab-ad3b-d253940966b3}, !- Surface Name
  ,                                       !- Outside Boundary Condition Object
  ,                                       !- View Factor to Ground
  ,                                       !- Shading Control Name
  ,                                       !- Frame and Divider Name
  1,                                      !- Multiplier
  ,                                       !- Number of Vertices
  35.443, 42.7237, 8,                     !- X,Y,Z Vertex 1 {m}
  35.443, 43.9429, 8,                     !- X,Y,Z Vertex 2 {m}
  34.224, 43.9429, 8,                     !- X,Y,Z Vertex 3 {m}
  34.224, 42.7237, 8;                     !- X,Y,Z Vertex 4 {m}

OS:SubSurface,
  {d4cc90ee-f378-4019-8e72-02b105e4b462}, !- Handle
  Aux_Gym_ZN_1_FLR_2_skylight_11,         !- Name
  Skylight,                               !- Sub Surface Type
  ,                                       !- Construction Name
  {89fd87b6-ce0e-4e53-82e1-edc9a39bf1aa}, !- Surface Name
  ,                                       !- Outside Boundary Condition Object
  ,                                       !- View Factor to Ground
  ,                                       !- Shading Control Name
  ,                                       !- Frame and Divider Name
  1,                                      !- Multiplier
  ,                                       !- Number of Vertices
  15.61, 13.8348, 8,                      !- X,Y,Z Vertex 1 {m}
  15.61, 15.054, 8,                       !- X,Y,Z Vertex 2 {m}
  14.39, 15.054, 8,                       !- X,Y,Z Vertex 3 {m}
  14.39, 13.8348, 8;                      !- X,Y,Z Vertex 4 {m}
  
OS:SubSurface,
  {46d4a197-8aa7-49f9-8cca-70373b802fb4}, !- Handle
  Gym_ZN_1_FLR_2_skylight_44,             !- Name
  Skylight,                               !- Sub Surface Type
  ,                                       !- Construction Name
  {4b4b6a4c-1a14-40ab-ad3b-d253940966b3}, !- Surface Name
  ,                                       !- Outside Boundary Condition Object
  ,                                       !- View Factor to Ground
  ,                                       !- Shading Control Name
  ,                                       !- Frame and Divider Name
  1,                                      !- Multiplier
  ,                                       !- Number of Vertices
  10.11, 42.7237, 8,                      !- X,Y,Z Vertex 1 {m}
  10.11, 43.9429, 8,                      !- X,Y,Z Vertex 2 {m}
  8.89, 43.9429, 8,                       !- X,Y,Z Vertex 3 {m}
  8.89, 42.7237, 8;                       !- X,Y,Z Vertex 4 {m}

OS:SubSurface,
  {db357969-fe3d-484b-be80-38e71946881a}, !- Handle
  Aux_Gym_ZN_1_FLR_2_skylight_25,         !- Name
  Skylight,                               !- Sub Surface Type
  ,                                       !- Construction Name
  {89fd87b6-ce0e-4e53-82e1-edc9a39bf1aa}, !- Surface Name
  ,                                       !- Outside Boundary Condition Object
  ,                                       !- View Factor to Ground
  ,                                       !- Shading Control Name
  ,                                       !- Frame and Divider Name
  1,                                      !- Multiplier
  ,                                       !- Number of Vertices
  3.61, 36.946, 8,                        !- X,Y,Z Vertex 1 {m}
  3.61, 38.1652, 8,                       !- X,Y,Z Vertex 2 {m}
  2.39, 38.1652, 8,                       !- X,Y,Z Vertex 3 {m}
  2.39, 36.946, 8;                        !- X,Y,Z Vertex 4 {m}

OS:SubSurface,
  {8328c02f-7415-433e-a0d0-c69225333c14}, !- Handle
  Aux_Gym_ZN_1_FLR_2_skylight_8,          !- Name
  Skylight,                               !- Sub Surface Type
  ,                                       !- Construction Name
  {89fd87b6-ce0e-4e53-82e1-edc9a39bf1aa}, !- Surface Name
  ,                                       !- Outside Boundary Condition Object
  ,                                       !- View Factor to Ground
  ,                                       !- Shading Control Name
  ,                                       !- Frame and Divider Name
  1,                                      !- Multiplier
  ,                                       !- Number of Vertices
  21.61, 8.0571, 8,                       !- X,Y,Z Vertex 1 {m}
  21.61, 9.2763, 8,                       !- X,Y,Z Vertex 2 {m}
  20.39, 9.2763, 8,                       !- X,Y,Z Vertex 3 {m}
  20.39, 8.0571, 8;                       !- X,Y,Z Vertex 4 {m}

OS:SubSurface,
  {9ee3e205-ce24-4f36-a68b-1d9a483cda66}, !- Handle
  Aux_Gym_ZN_1_FLR_2_skylight_9,          !- Name
  Skylight,                               !- Sub Surface Type
  ,                                       !- Construction Name
  {89fd87b6-ce0e-4e53-82e1-edc9a39bf1aa}, !- Surface Name
  ,                                       !- Outside Boundary Condition Object
  ,                                       !- View Factor to Ground
  ,                                       !- Shading Control Name
  ,                                       !- Frame and Divider Name
  1,                                      !- Multiplier
  ,                                       !- Number of Vertices
  3.61, 13.8348, 8,                       !- X,Y,Z Vertex 1 {m}
  3.61, 15.054, 8,                        !- X,Y,Z Vertex 2 {m}
  2.39, 15.054, 8,                        !- X,Y,Z Vertex 3 {m}
  2.39, 13.8348, 8;                       !- X,Y,Z Vertex 4 {m}

OS:SubSurface,
  {ef7928f3-1110-4ba0-8976-36ce76aec903}, !- Handle
  Gym_ZN_1_FLR_2_skylight_30,             !- Name
  Skylight,                               !- Sub Surface Type
  ,                                       !- Construction Name
  {4b4b6a4c-1a14-40ab-ad3b-d253940966b3}, !- Surface Name
  ,                                       !- Outside Boundary Condition Object
  ,                                       !- View Factor to Ground
  ,                                       !- Shading Control Name
  ,                                       !- Frame and Divider Name
  1,                                      !- Multiplier
  ,                                       !- Number of Vertices
  35.443, 25.3904, 8,                     !- X,Y,Z Vertex 1 {m}
  35.443, 26.6096, 8,                     !- X,Y,Z Vertex 2 {m}
  34.224, 26.6096, 8,                     !- X,Y,Z Vertex 3 {m}
  34.224, 25.3904, 8;                     !- X,Y,Z Vertex 4 {m}

OS:SubSurface,
  {c9ec631c-d363-422d-8a60-8124f45597f5}, !- Handle
  Gym_ZN_1_FLR_2_skylight_21,             !- Name
  Skylight,                               !- Sub Surface Type
  ,                                       !- Construction Name
  {4b4b6a4c-1a14-40ab-ad3b-d253940966b3}, !- Surface Name
  ,                                       !- Outside Boundary Condition Object
  ,                                       !- View Factor to Ground
  ,                                       !- Shading Control Name
  ,                                       !- Frame and Divider Name
  1,                                      !- Multiplier
  ,                                       !- Number of Vertices
  16.443, 19.6126, 8,                     !- X,Y,Z Vertex 1 {m}
  16.443, 20.8318, 8,                     !- X,Y,Z Vertex 2 {m}
  15.224, 20.8318, 8,                     !- X,Y,Z Vertex 3 {m}
  15.224, 19.6126, 8;                     !- X,Y,Z Vertex 4 {m}
  
OS:SubSurface,
  {75e39785-9460-426f-92c2-84105506f756}, !- Handle
  Aux_Gym_ZN_1_FLR_2_skylight_30,         !- Name
  Skylight,                               !- Sub Surface Type
  ,                                       !- Construction Name
  {89fd87b6-ce0e-4e53-82e1-edc9a39bf1aa}, !- Surface Name
  ,                                       !- Outside Boundary Condition Object
  ,                                       !- View Factor to Ground
  ,                                       !- Shading Control Name
  ,                                       !- Frame and Divider Name
  1,                                      !- Multiplier
  ,                                       !- Number of Vertices
  9.61, 42.7237, 8,                       !- X,Y,Z Vertex 1 {m}
  9.61, 43.9429, 8,                       !- X,Y,Z Vertex 2 {m}
  8.39, 43.9429, 8,                       !- X,Y,Z Vertex 3 {m}
  8.39, 42.7237, 8;                       !- X,Y,Z Vertex 4 {m}

OS:SubSurface,
  {c887591c-55be-4d93-a3c3-3c745e6ba5cd}, !- Handle
  Aux_Gym_ZN_1_FLR_2_skylight_32,         !- Name
  Skylight,                               !- Sub Surface Type
  ,                                       !- Construction Name
  {89fd87b6-ce0e-4e53-82e1-edc9a39bf1aa}, !- Surface Name
  ,                                       !- Outside Boundary Condition Object
  ,                                       !- View Factor to Ground
  ,                                       !- Shading Control Name
  ,                                       !- Frame and Divider Name
  1,                                      !- Multiplier
  ,                                       !- Number of Vertices
  21.61, 42.7237, 8,                      !- X,Y,Z Vertex 1 {m}
  21.61, 43.9429, 8,                      !- X,Y,Z Vertex 2 {m}
  20.39, 43.9429, 8,                      !- X,Y,Z Vertex 3 {m}
  20.39, 42.7237, 8;                      !- X,Y,Z Vertex 4 {m}

OS:SubSurface,
  {1a50b481-439b-477b-a3e1-c7e3a453d27f}, !- Handle
  Gym_ZN_1_FLR_2_skylight_36,             !- Name
  Skylight,                               !- Sub Surface Type
  ,                                       !- Construction Name
  {4b4b6a4c-1a14-40ab-ad3b-d253940966b3}, !- Surface Name
  ,                                       !- Outside Boundary Condition Object
  ,                                       !- View Factor to Ground
  ,                                       !- Shading Control Name
  ,                                       !- Frame and Divider Name
  1,                                      !- Multiplier
  ,                                       !- Number of Vertices
  35.443, 31.1682, 8,                     !- X,Y,Z Vertex 1 {m}
  35.443, 32.3874, 8,                     !- X,Y,Z Vertex 2 {m}
  34.224, 32.3874, 8,                     !- X,Y,Z Vertex 3 {m}
  34.224, 31.1682, 8;                     !- X,Y,Z Vertex 4 {m}

OS:SubSurface,
  {09b1ba45-4bc4-407b-a025-aad28ff6fd6e}, !- Handle
  Gym_ZN_1_FLR_2_skylight_20,             !- Name
  Skylight,                               !- Sub Surface Type
  ,                                       !- Construction Name
  {4b4b6a4c-1a14-40ab-ad3b-d253940966b3}, !- Surface Name
  ,                                       !- Outside Boundary Condition Object
  ,                                       !- View Factor to Ground
  ,                                       !- Shading Control Name
  ,                                       !- Frame and Divider Name
  1,                                      !- Multiplier
  ,                                       !- Number of Vertices
  10.11, 19.6126, 8,                      !- X,Y,Z Vertex 1 {m}
  10.11, 20.8318, 8,                      !- X,Y,Z Vertex 2 {m}
  8.89, 20.8318, 8,                       !- X,Y,Z Vertex 3 {m}
  8.89, 19.6126, 8;                       !- X,Y,Z Vertex 4 {m}

OS:SubSurface,
  {cbf2b3c8-4134-4640-97eb-65b23dd3a988}, !- Handle
  Gym_ZN_1_FLR_2_skylight_38,             !- Name
  Skylight,                               !- Sub Surface Type
  ,                                       !- Construction Name
  {4b4b6a4c-1a14-40ab-ad3b-d253940966b3}, !- Surface Name
  ,                                       !- Outside Boundary Condition Object
  ,                                       !- View Factor to Ground
  ,                                       !- Shading Control Name
  ,                                       !- Frame and Divider Name
  1,                                      !- Multiplier
  ,                                       !- Number of Vertices
  10.11, 36.946, 8,                       !- X,Y,Z Vertex 1 {m}
  10.11, 38.1652, 8,                      !- X,Y,Z Vertex 2 {m}
  8.89, 38.1652, 8,                       !- X,Y,Z Vertex 3 {m}
  8.89, 36.946, 8;                        !- X,Y,Z Vertex 4 {m}

OS:SubSurface,
  {0d436f23-fef6-4690-81ab-b79e3c9569ba}, !- Handle
  Aux_Gym_ZN_1_FLR_2_skylight_10,         !- Name
  Skylight,                               !- Sub Surface Type
  ,                                       !- Construction Name
  {89fd87b6-ce0e-4e53-82e1-edc9a39bf1aa}, !- Surface Name
  ,                                       !- Outside Boundary Condition Object
  ,                                       !- View Factor to Ground
  ,                                       !- Shading Control Name
  ,                                       !- Frame and Divider Name
  1,                                      !- Multiplier
  ,                                       !- Number of Vertices
  9.61, 13.8348, 8,                       !- X,Y,Z Vertex 1 {m}
  9.61, 15.054, 8,                        !- X,Y,Z Vertex 2 {m}
  8.39, 15.054, 8,                        !- X,Y,Z Vertex 3 {m}
  8.39, 13.8348, 8;                       !- X,Y,Z Vertex 4 {m}

OS:SubSurface,
  {39f0d50e-e3fc-4a5d-beaf-b8a66ba59df3}, !- Handle
  Gym_ZN_1_FLR_2_skylight_23,             !- Name
  Skylight,                               !- Sub Surface Type
  ,                                       !- Construction Name
  {4b4b6a4c-1a14-40ab-ad3b-d253940966b3}, !- Surface Name
  ,                                       !- Outside Boundary Condition Object
  ,                                       !- View Factor to Ground
  ,                                       !- Shading Control Name
  ,                                       !- Frame and Divider Name
  1,                                      !- Multiplier
  ,                                       !- Number of Vertices
  29.11, 19.6126, 8,                      !- X,Y,Z Vertex 1 {m}
  29.11, 20.8318, 8,                      !- X,Y,Z Vertex 2 {m}
  27.89, 20.8318, 8,                      !- X,Y,Z Vertex 3 {m}
  27.89, 19.6126, 8;                      !- X,Y,Z Vertex 4 {m}

OS:SubSurface,
  {0d828788-be69-4308-9b80-1377f2518b99}, !- Handle
  Gym_ZN_1_FLR_2_skylight_52,             !- Name
  Skylight,                               !- Sub Surface Type
  ,                                       !- Construction Name
  {4b4b6a4c-1a14-40ab-ad3b-d253940966b3}, !- Surface Name
  ,                                       !- Outside Boundary Condition Object
  ,                                       !- View Factor to Ground
  ,                                       !- Shading Control Name
  ,                                       !- Frame and Divider Name
  1,                                      !- Multiplier
  ,                                       !- Number of Vertices
  22.776, 48.5015, 8,                     !- X,Y,Z Vertex 1 {m}
  22.776, 49.7207, 8,                     !- X,Y,Z Vertex 2 {m}
  21.557, 49.7207, 8,                     !- X,Y,Z Vertex 3 {m}
  21.557, 48.5015, 8;                     !- X,Y,Z Vertex 4 {m}

OS:SubSurface,
  {3bcbcf9c-b414-4219-af44-314f1ca5fba3}, !- Handle
  Gym_ZN_1_FLR_2_skylight_47,             !- Name
  Skylight,                               !- Sub Surface Type
  ,                                       !- Construction Name
  {4b4b6a4c-1a14-40ab-ad3b-d253940966b3}, !- Surface Name
  ,                                       !- Outside Boundary Condition Object
  ,                                       !- View Factor to Ground
  ,                                       !- Shading Control Name
  ,                                       !- Frame and Divider Name
  1,                                      !- Multiplier
  ,                                       !- Number of Vertices
  29.11, 42.7237, 8,                      !- X,Y,Z Vertex 1 {m}
  29.11, 43.9429, 8,                      !- X,Y,Z Vertex 2 {m}
  27.89, 43.9429, 8,                      !- X,Y,Z Vertex 3 {m}
  27.89, 42.7237, 8;                      !- X,Y,Z Vertex 4 {m}

OS:SubSurface,
  {8140fff1-cf4b-410d-a564-6bfe5e85f1e2}, !- Handle
  Gym_ZN_1_FLR_2_skylight_12,             !- Name
  Skylight,                               !- Sub Surface Type
  ,                                       !- Construction Name
  {4b4b6a4c-1a14-40ab-ad3b-d253940966b3}, !- Surface Name
  ,                                       !- Outside Boundary Condition Object
  ,                                       !- View Factor to Ground
  ,                                       !- Shading Control Name
  ,                                       !- Frame and Divider Name
  1,                                      !- Multiplier
  ,                                       !- Number of Vertices
  35.443, 8.0571, 8,                      !- X,Y,Z Vertex 1 {m}
  35.443, 9.2763, 8,                      !- X,Y,Z Vertex 2 {m}
  34.224, 9.2763, 8,                      !- X,Y,Z Vertex 3 {m}
  34.224, 8.0571, 8;                      !- X,Y,Z Vertex 4 {m}

OS:SubSurface,
  {e05d2a98-6284-4951-a899-f84060b1f022}, !- Handle
  Gym_ZN_1_FLR_2_skylight_49,             !- Name
  Skylight,                               !- Sub Surface Type
  ,                                       !- Construction Name
  {4b4b6a4c-1a14-40ab-ad3b-d253940966b3}, !- Surface Name
  ,                                       !- Outside Boundary Condition Object
  ,                                       !- View Factor to Ground
  ,                                       !- Shading Control Name
  ,                                       !- Frame and Divider Name
  1,                                      !- Multiplier
  ,                                       !- Number of Vertices
  3.776, 48.5015, 8,                      !- X,Y,Z Vertex 1 {m}
  3.776, 49.7207, 8,                      !- X,Y,Z Vertex 2 {m}
  2.557, 49.7207, 8,                      !- X,Y,Z Vertex 3 {m}
  2.557, 48.5015, 8;                      !- X,Y,Z Vertex 4 {m}

OS:SubSurface,
  {ad56f748-a6e6-44a7-ab85-1fe961db31b3}, !- Handle
  Aux_Gym_ZN_1_FLR_2_skylight_2,          !- Name
  Skylight,                               !- Sub Surface Type
  ,                                       !- Construction Name
  {89fd87b6-ce0e-4e53-82e1-edc9a39bf1aa}, !- Surface Name
  ,                                       !- Outside Boundary Condition Object
  ,                                       !- View Factor to Ground
  ,                                       !- Shading Control Name
  ,                                       !- Frame and Divider Name
  1,                                      !- Multiplier
  ,                                       !- Number of Vertices
  9.61, 2.2793, 8,                        !- X,Y,Z Vertex 1 {m}
  9.61, 3.4985, 8,                        !- X,Y,Z Vertex 2 {m}
  8.39, 3.4985, 8,                        !- X,Y,Z Vertex 3 {m}
  8.39, 2.2793, 8;                        !- X,Y,Z Vertex 4 {m}

OS:SubSurface,
  {7bd0da01-0280-42fc-bee3-a930911716cf}, !- Handle
  Aux_Gym_ZN_1_FLR_2_skylight_17,         !- Name
  Skylight,                               !- Sub Surface Type
  ,                                       !- Construction Name
  {89fd87b6-ce0e-4e53-82e1-edc9a39bf1aa}, !- Surface Name
  ,                                       !- Outside Boundary Condition Object
  ,                                       !- View Factor to Ground
  ,                                       !- Shading Control Name
  ,                                       !- Frame and Divider Name
  1,                                      !- Multiplier
  ,                                       !- Number of Vertices
  3.61, 25.3904, 8,                       !- X,Y,Z Vertex 1 {m}
  3.61, 26.6096, 8,                       !- X,Y,Z Vertex 2 {m}
  2.39, 26.6096, 8,                       !- X,Y,Z Vertex 3 {m}
  2.39, 25.3904, 8;                       !- X,Y,Z Vertex 4 {m}

OS:SubSurface,
  {453b0b79-1c17-48f9-b0f7-add0ee4f9b09}, !- Handle
  Aux_Gym_ZN_1_FLR_2_skylight_24,         !- Name
  Skylight,                               !- Sub Surface Type
  ,                                       !- Construction Name
  {89fd87b6-ce0e-4e53-82e1-edc9a39bf1aa}, !- Surface Name
  ,                                       !- Outside Boundary Condition Object
  ,                                       !- View Factor to Ground
  ,                                       !- Shading Control Name
  ,                                       !- Frame and Divider Name
  1,                                      !- Multiplier
  ,                                       !- Number of Vertices
  21.61, 31.1682, 8,                      !- X,Y,Z Vertex 1 {m}
  21.61, 32.3874, 8,                      !- X,Y,Z Vertex 2 {m}
  20.39, 32.3874, 8,                      !- X,Y,Z Vertex 3 {m}
  20.39, 31.1682, 8;                      !- X,Y,Z Vertex 4 {m}

OS:SubSurface,
  {61b7b02a-2376-45a5-8f51-1d5e05a799ce}, !- Handle
  Gym_ZN_1_FLR_2_skylight_28,             !- Name
  Skylight,                               !- Sub Surface Type
  ,                                       !- Construction Name
  {4b4b6a4c-1a14-40ab-ad3b-d253940966b3}, !- Surface Name
  ,                                       !- Outside Boundary Condition Object
  ,                                       !- View Factor to Ground
  ,                                       !- Shading Control Name
  ,                                       !- Frame and Divider Name
  1,                                      !- Multiplier
  ,                                       !- Number of Vertices
  22.776, 25.3904, 8,                     !- X,Y,Z Vertex 1 {m}
  22.776, 26.6096, 8,                     !- X,Y,Z Vertex 2 {m}
  21.557, 26.6096, 8,                     !- X,Y,Z Vertex 3 {m}
  21.557, 25.3904, 8;                     !- X,Y,Z Vertex 4 {m}

OS:SubSurface,
  {81d72db1-3fe6-4019-b277-0c1903a0b3e6}, !- Handle
  Gym_ZN_1_FLR_2_skylight_37,             !- Name
  Skylight,                               !- Sub Surface Type
  ,                                       !- Construction Name
  {4b4b6a4c-1a14-40ab-ad3b-d253940966b3}, !- Surface Name
  ,                                       !- Outside Boundary Condition Object
  ,                                       !- View Factor to Ground
  ,                                       !- Shading Control Name
  ,                                       !- Frame and Divider Name
  1,                                      !- Multiplier
  ,                                       !- Number of Vertices
  3.776, 36.946, 8,                       !- X,Y,Z Vertex 1 {m}
  3.776, 38.1652, 8,                      !- X,Y,Z Vertex 2 {m}
  2.557, 38.1652, 8,                      !- X,Y,Z Vertex 3 {m}
  2.557, 36.946, 8;                       !- X,Y,Z Vertex 4 {m}

OS:SubSurface,
  {b9fe64f6-0d7d-4887-9e44-f81a8f8d7e33}, !- Handle
  Gym_ZN_1_FLR_2_skylight_15,             !- Name
  Skylight,                               !- Sub Surface Type
  ,                                       !- Construction Name
  {4b4b6a4c-1a14-40ab-ad3b-d253940966b3}, !- Surface Name
  ,                                       !- Outside Boundary Condition Object
  ,                                       !- View Factor to Ground
  ,                                       !- Shading Control Name
  ,                                       !- Frame and Divider Name
  1,                                      !- Multiplier
  ,                                       !- Number of Vertices
  16.443, 13.8348, 8,                     !- X,Y,Z Vertex 1 {m}
  16.443, 15.054, 8,                      !- X,Y,Z Vertex 2 {m}
  15.224, 15.054, 8,                      !- X,Y,Z Vertex 3 {m}
  15.224, 13.8348, 8;                     !- X,Y,Z Vertex 4 {m}

OS:SubSurface,
  {591e15e7-9b13-442a-be37-c30b1ca84175}, !- Handle
  Aux_Gym_ZN_1_FLR_2_skylight_22,         !- Name
  Skylight,                               !- Sub Surface Type
  ,                                       !- Construction Name
  {89fd87b6-ce0e-4e53-82e1-edc9a39bf1aa}, !- Surface Name