OS:Version,
  {990ad3eb-26e2-4b85-9afc-9f5896fc040e}, !- Handle
  2.2.1;                                  !- Version Identifier
  
OS:BuildingStory,
  {db75d8b1-6332-4998-b7c2-ad46d4bbd08b}, !- Handle
  Building Story 1,                       !- Name
  0,                                      !- Nominal Z Coordinate {m}
  ,                                       !- Nominal Floor to Floor Height {m}
  ,                                       !- Default Construction Set Name
  ,                                       !- Default Schedule Set Name
  ;                                       !- Group Rendering Name

OS:Building,
  {c23ded4b-6f18-4e30-b6db-cc00e1198751}, !- Handle
  RetailStandalone,                       !- Name
  ,                                       !- Building Sector Type
  ,                                       !- North Axis {deg}
  ,                                       !- Nominal Floor to Floor Height {m}
  ,                                       !- Space Type Name
  ,                                       !- Default Construction Set Name
  ,                                       !- Default Schedule Set Name
  1,                                      !- Standards Number of Stories
  1,                                      !- Standards Number of Above Ground Stories
  Retail;                                 !- Standards Building Type

OS:ThermalZone,
  {1833e257-ca02-4033-b7e1-a9b7f59c4fbe}, !- Handle
  RetailStandalone,                       !- Name
  ,                                       !- Multiplier
  ,                                       !- Ceiling Height {m}
  ,                                       !- Volume {m3}
  ,                                       !- Floor Area {m2}
  ,                                       !- Zone Inside Convection Algorithm
  ,                                       !- Zone Outside Convection Algorithm
  ,                                       !- Zone Conditioning Equipment List Name
  ,                                       !- Zone Air Inlet Port List
  ,                                       !- Zone Air Exhaust Port List
  ,                                       !- Zone Air Node Name
  ,                                       !- Zone Return Air Node Name
  ,                                       !- Primary Daylighting Control Name
  ,                                       !- Fraction of Zone Controlled by Primary Daylighting Control
  ,                                       !- Secondary Daylighting Control Name
  ,                                       !- Fraction of Zone Controlled by Secondary Daylighting Control
  ,                                       !- Illuminance Map Name
  ,                                       !- Group Rendering Name
  ,                                       !- Thermostat Name
  No;                                     !- Use Ideal Air Loads

OS:Surface,
  {66414309-916b-416b-bfe4-4dedd3955db9}, !- Handle
  Core_Retail_Roof,                       !- Name
  RoofCeiling,                            !- Surface Type
  ,                                       !- Construction Name
  {e3918e2f-852e-438a-a248-c13d9fc146d0}, !- Space Name
  Outdoors,                               !- Outside Boundary Condition
  ,                                       !- Outside Boundary Condition Object
  SunExposed,                             !- Sun Exposure
  WindExposed,                            !- Wind Exposure
  ,                                       !- View Factor to Ground
  ,                                       !- Number of Vertices
  0, 29.27, 6.096,                        !- X,Y,Z Vertex 1 {m}
  0, 0, 6.096,                            !- X,Y,Z Vertex 2 {m}
  54.27, 0, 6.096,                        !- X,Y,Z Vertex 3 {m}
  54.27, 29.27, 6.096;                    !- X,Y,Z Vertex 4 {m}

OS:SubSurface,
  {635cf325-9c30-4af5-9211-97e8552b27f4}, !- Handle
  skylights_R1C3,                         !- Name
  Skylight,                               !- Sub Surface Type
  ,                                       !- Construction Name
  {66414309-916b-416b-bfe4-4dedd3955db9}, !- Surface Name
  ,                                       !- Outside Boundary Condition Object
  ,                                       !- View Factor to Ground
  ,                                       !- Shading Control Name
  ,                                       !- Frame and Divider Name
  ,                                       !- Multiplier
  ,                                       !- Number of Vertices
  11.8872, 26.5268, 6.096,                !- X,Y,Z Vertex 1 {m}
  11.8872, 27.4412, 6.096,                !- X,Y,Z Vertex 2 {m}
  10.9728, 27.4412, 6.096,                !- X,Y,Z Vertex 3 {m}
  10.9728, 26.5268, 6.096;                !- X,Y,Z Vertex 4 {m}

OS:SubSurface,
  {f29f0742-d78e-4901-835a-302597df7d48}, !- Handle
  skylights_R1C4,                         !- Name
  Skylight,                               !- Sub Surface Type
  ,                                       !- Construction Name
  {66414309-916b-416b-bfe4-4dedd3955db9}, !- Surface Name
  ,                                       !- Outside Boundary Condition Object
  ,                                       !- View Factor to Ground
  ,                                       !- Shading Control Name
  ,                                       !- Frame and Divider Name
  ,                                       !- Multiplier
  ,                                       !- Number of Vertices
  16.4592, 26.5268, 6.096,                !- X,Y,Z Vertex 1 {m}
  16.4592, 27.4412, 6.096,                !- X,Y,Z Vertex 2 {m}
  15.5448, 27.4412, 6.096,                !- X,Y,Z Vertex 3 {m}
  15.5448, 26.5268, 6.096;                !- X,Y,Z Vertex 4 {m}

OS:SubSurface,
  {50fe01ef-0210-489e-a0bb-07e3a5b6f394}, !- Handle
  skylights_R2C2,                         !- Name
  Skylight,                               !- Sub Surface Type
  ,                                       !- Construction Name
  {66414309-916b-416b-bfe4-4dedd3955db9}, !- Surface Name
  ,                                       !- Outside Boundary Condition Object
  ,                                       !- View Factor to Ground
  ,                                       !- Shading Control Name
  ,                                       !- Frame and Divider Name
  ,                                       !- Multiplier
  ,                                       !- Number of Vertices
  7.3152, 21.9548, 6.096,                 !- X,Y,Z Vertex 1 {m}
  7.3152, 22.8692, 6.096,                 !- X,Y,Z Vertex 2 {m}
  6.4008, 22.8692, 6.096,                 !- X,Y,Z Vertex 3 {m}
  6.4008, 21.9548, 6.096;                 !- X,Y,Z Vertex 4 {m}

OS:SubSurface,
  {99c5a6e7-df1f-4d5b-a854-ba3d237d23f2}, !- Handle
  skylights_R2C3,                         !- Name
  Skylight,                               !- Sub Surface Type
  ,                                       !- Construction Name
  {66414309-916b-416b-bfe4-4dedd3955db9}, !- Surface Name
  ,                                       !- Outside Boundary Condition Object
  ,                                       !- View Factor to Ground
  ,                                       !- Shading Control Name
  ,                                       !- Frame and Divider Name
  ,                                       !- Multiplier
  ,                                       !- Number of Vertices
  11.8872, 21.9548, 6.096,                !- X,Y,Z Vertex 1 {m}
  11.8872, 22.8692, 6.096,                !- X,Y,Z Vertex 2 {m}
  10.9728, 22.8692, 6.096,                !- X,Y,Z Vertex 3 {m}
  10.9728, 21.9548, 6.096;                !- X,Y,Z Vertex 4 {m}

OS:SubSurface,
  {33c42fc5-e881-4346-99b8-a3b5b0aeb932}, !- Handle
  skylights_R1C1,                         !- Name
  Skylight,                               !- Sub Surface Type
  ,                                       !- Construction Name
  {66414309-916b-416b-bfe4-4dedd3955db9}, !- Surface Name
  ,                                       !- Outside Boundary Condition Object
  ,                                       !- View Factor to Ground
  ,                                       !- Shading Control Name
  ,                                       !- Frame and Divider Name
  ,                                       !- Multiplier
  ,                                       !- Number of Vertices
  2.7432, 26.5268, 6.096,                 !- X,Y,Z Vertex 1 {m}
  2.7432, 27.4412, 6.096,                 !- X,Y,Z Vertex 2 {m}
  1.8288, 27.4412, 6.096,                 !- X,Y,Z Vertex 3 {m}
  1.8288, 26.5268, 6.096;                 !- X,Y,Z Vertex 4 {m}

OS:SubSurface,
  {fcd735a4-d028-44ba-89e5-dc823f2504f9}, !- Handle
  skylights_R2C4,                         !- Name
  Skylight,                               !- Sub Surface Type
  ,                                       !- Construction Name
  {66414309-916b-416b-bfe4-4dedd3955db9}, !- Surface Name
  ,                                       !- Outside Boundary Condition Object
  ,                                       !- View Factor to Ground
  ,                                       !- Shading Control Name
  ,                                       !- Frame and Divider Name
  ,                                       !- Multiplier
  ,                                       !- Number of Vertices
  16.4592, 21.9548, 6.096,                !- X,Y,Z Vertex 1 {m}
  16.4592, 22.8692, 6.096,                !- X,Y,Z Vertex 2 {m}
  15.5448, 22.8692, 6.096,                !- X,Y,Z Vertex 3 {m}
  15.5448, 21.9548, 6.096;                !- X,Y,Z Vertex 4 {m}

OS:SubSurface,
  {e6c745e6-293e-4ef6-924b-f616de4707b1}, !- Handle
  skylights_R1C2,                         !- Name
  Skylight,                               !- Sub Surface Type
  ,                                       !- Construction Name
  {66414309-916b-416b-bfe4-4dedd3955db9}, !- Surface Name
  ,                                       !- Outside Boundary Condition Object
  ,                                       !- View Factor to Ground
  ,                                       !- Shading Control Name
  ,                                       !- Frame and Divider Name
  ,                                       !- Multiplier
  ,                                       !- Number of Vertices
  7.3152, 26.5268, 6.096,                 !- X,Y,Z Vertex 1 {m}
  7.3152, 27.4412, 6.096,                 !- X,Y,Z Vertex 2 {m}
  6.4008, 27.4412, 6.096,                 !- X,Y,Z Vertex 3 {m}
  6.4008, 26.5268, 6.096;                 !- X,Y,Z Vertex 4 {m}

OS:SubSurface,
  {2cfa3be8-307a-49bd-b36e-bc84a361d9ea}, !- Handle
  skylights_R2C1,                         !- Name
  Skylight,                               !- Sub Surface Type
  ,                                       !- Construction Name
  {66414309-916b-416b-bfe4-4dedd3955db9}, !- Surface Name
  ,                                       !- Outside Boundary Condition Object
  ,                                       !- View Factor to Ground
  ,                                       !- Shading Control Name
  ,                                       !- Frame and Divider Name
  ,                                       !- Multiplier
  ,                                       !- Number of Vertices
  2.7432, 21.9548, 6.096,                 !- X,Y,Z Vertex 1 {m}
  2.7432, 22.8692, 6.096,                 !- X,Y,Z Vertex 2 {m}
  1.8288, 22.8692, 6.096,                 !- X,Y,Z Vertex 3 {m}
  1.8288, 21.9548, 6.096;                 !- X,Y,Z Vertex 4 {m}

