OS:Version,
  {990ad3eb-26e2-4b85-9afc-9f5896fc040e}, !- Handle
  2.2.1;                                  !- Version Identifier
  
OS:BuildingStory,
  {db75d8b1-6332-4998-b7c2-ad46d4bbd08b}, !- Handle
  Building Story 1,                       !- Name
  0,                                      !- Nominal Z Coordinate {m}
  ,                                       !- Nominal Floor to Floor Height {m}
  ,                                       !- Default Construction Set Name
  ,                                       !- Default Schedule Set Name
  ;                                       !- Group Rendering Name

OS:Building,
  {c23ded4b-6f18-4e30-b6db-cc00e1198751}, !- Handle
  RetailStandalone,                       !- Name
  ,                                       !- Building Sector Type
  ,                                       !- North Axis {deg}
  ,                                       !- Nominal Floor to Floor Height {m}
  ,                                       !- Space Type Name
  ,                                       !- Default Construction Set Name
  ,                                       !- Default Schedule Set Name
  1,                                      !- Standards Number of Stories
  1,                                      !- Standards Number of Above Ground Stories
  Retail;                                 !- Standards Building Type

OS:ThermalZone,
  {1833e257-ca02-4033-b7e1-a9b7f59c4fbe}, !- Handle
  RetailStandalone,                       !- Name
  ,                                       !- Multiplier
  ,                                       !- Ceiling Height {m}
  ,                                       !- Volume {m3}
  ,                                       !- Floor Area {m2}
  ,                                       !- Zone Inside Convection Algorithm
  ,                                       !- Zone Outside Convection Algorithm
  ,                                       !- Zone Conditioning Equipment List Name
  ,                                       !- Zone Air Inlet Port List
  ,                                       !- Zone Air Exhaust Port List
  ,                                       !- Zone Air Node Name
  ,                                       !- Zone Return Air Node Name
  ,                                       !- Primary Daylighting Control Name
  ,                                       !- Fraction of Zone Controlled by Primary Daylighting Control
  ,                                       !- Secondary Daylighting Control Name
  ,                                       !- Fraction of Zone Controlled by Secondary Daylighting Control
  ,                                       !- Illuminance Map Name
  ,                                       !- Group Rendering Name
  ,                                       !- Thermostat Name
  No;                                     !- Use Ideal Air Loads

OS:Surface,
  {007c4110-77bc-466f-ac9b-021f9a1a4397}, !- Handle
  Core_Retail_Roof,                       !- Name
  RoofCeiling,                            !- Surface Type
  ,                                       !- Construction Name
  {308a9ccd-586a-4231-b605-b35b346c50c8}, !- Space Name
  Outdoors,                               !- Outside Boundary Condition
  ,                                       !- Outside Boundary Condition Object
  SunExposed,                             !- Sun Exposure
  WindExposed,                            !- Wind Exposure
  ,                                       !- View Factor to Ground
  ,                                       !- Number of Vertices
  0, 29.27, 6.096,                        !- X,Y,Z Vertex 1 {m}
  0, 0, 6.096,                            !- X,Y,Z Vertex 2 {m}
  54.27, 0, 6.096,                        !- X,Y,Z Vertex 3 {m}
  54.27, 29.27, 6.096;                    !- X,Y,Z Vertex 4 {m}

OS:SubSurface,
  {c47f8f65-ed29-40ec-87ef-7fac74f4e8d9}, !- Handle
  Skylights_r2c4,                         !- Name
  Skylight,                               !- Sub Surface Type
  ,                                       !- Construction Name
  {007c4110-77bc-466f-ac9b-021f9a1a4397}, !- Surface Name
  ,                                       !- Outside Boundary Condition Object
  ,                                       !- View Factor to Ground
  ,                                       !- Shading Control Name
  ,                                       !- Frame and Divider Name
  ,                                       !- Multiplier
  ,                                       !- Number of Vertices
  23.7822, 10.4648, 6.096,                !- X,Y,Z Vertex 1 {m}
  23.7822, 11.684, 6.096,                 !- X,Y,Z Vertex 2 {m}
  22.563, 11.684, 6.096,                  !- X,Y,Z Vertex 3 {m}
  22.563, 10.4648, 6.096;                 !- X,Y,Z Vertex 4 {m}

OS:SubSurface,
  {923ba796-4efe-41c0-aa81-5ad4e78c9894}, !- Handle
  Skylights_r4c1,                         !- Name
  Skylight,                               !- Sub Surface Type
  ,                                       !- Construction Name
  {007c4110-77bc-466f-ac9b-021f9a1a4397}, !- Surface Name
  ,                                       !- Outside Boundary Condition Object
  ,                                       !- View Factor to Ground
  ,                                       !- Shading Control Name
  ,                                       !- Frame and Divider Name
  ,                                       !- Multiplier
  ,                                       !- Number of Vertices
  4.572, 24.698, 6.096,                   !- X,Y,Z Vertex 1 {m}
  4.572, 25.9172, 6.096,                  !- X,Y,Z Vertex 2 {m}
  3.3528, 25.9172, 6.096,                 !- X,Y,Z Vertex 3 {m}
  3.3528, 24.698, 6.096;                  !- X,Y,Z Vertex 4 {m}

OS:SubSurface,
  {e4f7c68c-9df7-4682-a866-0018a9219c79}, !- Handle
  Skylights_r1c1,                         !- Name
  Skylight,                               !- Sub Surface Type
  ,                                       !- Construction Name
  {007c4110-77bc-466f-ac9b-021f9a1a4397}, !- Surface Name
  ,                                       !- Outside Boundary Condition Object
  ,                                       !- View Factor to Ground
  ,                                       !- Shading Control Name
  ,                                       !- Frame and Divider Name
  ,                                       !- Multiplier
  ,                                       !- Number of Vertices
  4.572, 3.3528, 6.096,                   !- X,Y,Z Vertex 1 {m}
  4.572, 4.572, 6.096,                    !- X,Y,Z Vertex 2 {m}
  3.3528, 4.572, 6.096,                   !- X,Y,Z Vertex 3 {m}
  3.3528, 3.3528, 6.096;                  !- X,Y,Z Vertex 4 {m}

OS:SubSurface,
  {08d8d4ad-9ea3-42cd-a7bb-15ef3c5ccdb8}, !- Handle
  Skylights_r2c1,                         !- Name
  Skylight,                               !- Sub Surface Type
  ,                                       !- Construction Name
  {007c4110-77bc-466f-ac9b-021f9a1a4397}, !- Surface Name
  ,                                       !- Outside Boundary Condition Object
  ,                                       !- View Factor to Ground
  ,                                       !- Shading Control Name
  ,                                       !- Frame and Divider Name
  ,                                       !- Multiplier
  ,                                       !- Number of Vertices
  4.572, 10.4648, 6.096,                  !- X,Y,Z Vertex 1 {m}
  4.572, 11.684, 6.096,                   !- X,Y,Z Vertex 2 {m}
  3.3528, 11.684, 6.096,                  !- X,Y,Z Vertex 3 {m}
  3.3528, 10.4648, 6.096;                 !- X,Y,Z Vertex 4 {m}

OS:SubSurface,
  {e9a5918d-4d11-4048-9d06-71e0a8588d8a}, !- Handle
  Skylights_r2c3,                         !- Name
  Skylight,                               !- Sub Surface Type
  ,                                       !- Construction Name
  {007c4110-77bc-466f-ac9b-021f9a1a4397}, !- Surface Name
  ,                                       !- Outside Boundary Condition Object
  ,                                       !- View Factor to Ground
  ,                                       !- Shading Control Name
  ,                                       !- Frame and Divider Name
  ,                                       !- Multiplier
  ,                                       !- Number of Vertices
  17.3736, 10.4648, 6.096,                !- X,Y,Z Vertex 1 {m}
  17.3736, 11.684, 6.096,                 !- X,Y,Z Vertex 2 {m}
  16.1544, 11.684, 6.096,                 !- X,Y,Z Vertex 3 {m}
  16.1544, 10.4648, 6.096;                !- X,Y,Z Vertex 4 {m}

OS:SubSurface,
  {0b91ee32-f36d-404c-806f-def2f984cbe0}, !- Handle
  Skylights_r4c3,                         !- Name
  Skylight,                               !- Sub Surface Type
  ,                                       !- Construction Name
  {007c4110-77bc-466f-ac9b-021f9a1a4397}, !- Surface Name
  ,                                       !- Outside Boundary Condition Object
  ,                                       !- View Factor to Ground
  ,                                       !- Shading Control Name
  ,                                       !- Frame and Divider Name
  ,                                       !- Multiplier
  ,                                       !- Number of Vertices
  17.3736, 24.698, 6.096,                 !- X,Y,Z Vertex 1 {m}
  17.3736, 25.9172, 6.096,                !- X,Y,Z Vertex 2 {m}
  16.1544, 25.9172, 6.096,                !- X,Y,Z Vertex 3 {m}
  16.1544, 24.698, 6.096;                 !- X,Y,Z Vertex 4 {m}

OS:SubSurface,
  {d87f44ee-c4ea-4ee8-9311-6ff534f87b6d}, !- Handle
  Skylights_r3c3,                         !- Name
  Skylight,                               !- Sub Surface Type
  ,                                       !- Construction Name
  {007c4110-77bc-466f-ac9b-021f9a1a4397}, !- Surface Name
  ,                                       !- Outside Boundary Condition Object
  ,                                       !- View Factor to Ground
  ,                                       !- Shading Control Name
  ,                                       !- Frame and Divider Name
  ,                                       !- Multiplier
  ,                                       !- Number of Vertices
  17.3736, 17.5768, 6.096,                !- X,Y,Z Vertex 1 {m}
  17.3736, 18.796, 6.096,                 !- X,Y,Z Vertex 2 {m}
  16.1544, 18.796, 6.096,                 !- X,Y,Z Vertex 3 {m}
  16.1544, 17.5768, 6.096;                !- X,Y,Z Vertex 4 {m}

OS:SubSurface,
  {00fb3987-0bae-45f7-85cf-263e421d2c87}, !- Handle
  Skylights_r3c1,                         !- Name
  Skylight,                               !- Sub Surface Type
  ,                                       !- Construction Name
  {007c4110-77bc-466f-ac9b-021f9a1a4397}, !- Surface Name
  ,                                       !- Outside Boundary Condition Object
  ,                                       !- View Factor to Ground
  ,                                       !- Shading Control Name
  ,                                       !- Frame and Divider Name
  ,                                       !- Multiplier
  ,                                       !- Number of Vertices
  4.572, 17.5768, 6.096,                  !- X,Y,Z Vertex 1 {m}
  4.572, 18.796, 6.096,                   !- X,Y,Z Vertex 2 {m}
  3.3528, 18.796, 6.096,                  !- X,Y,Z Vertex 3 {m}
  3.3528, 17.5768, 6.096;                 !- X,Y,Z Vertex 4 {m}

OS:SubSurface,
  {e176f146-055f-42b0-a564-800c420a9ead}, !- Handle
  Skylights_r1c3,                         !- Name
  Skylight,                               !- Sub Surface Type
  ,                                       !- Construction Name
  {007c4110-77bc-466f-ac9b-021f9a1a4397}, !- Surface Name
  ,                                       !- Outside Boundary Condition Object
  ,                                       !- View Factor to Ground
  ,                                       !- Shading Control Name
  ,                                       !- Frame and Divider Name
  ,                                       !- Multiplier
  ,                                       !- Number of Vertices
  17.3736, 3.3528, 6.096,                 !- X,Y,Z Vertex 1 {m}
  17.3736, 4.572, 6.096,                  !- X,Y,Z Vertex 2 {m}
  16.1544, 4.572, 6.096,                  !- X,Y,Z Vertex 3 {m}
  16.1544, 3.3528, 6.096;                 !- X,Y,Z Vertex 4 {m}

OS:SubSurface,
  {81cb131e-eac3-4cec-8c11-dab57047b08f}, !- Handle
  Skylights_r3c2,                         !- Name
  Skylight,                               !- Sub Surface Type
  ,                                       !- Construction Name
  {007c4110-77bc-466f-ac9b-021f9a1a4397}, !- Surface Name
  ,                                       !- Outside Boundary Condition Object
  ,                                       !- View Factor to Ground
  ,                                       !- Shading Control Name
  ,                                       !- Frame and Divider Name
  ,                                       !- Multiplier
  ,                                       !- Number of Vertices
  10.9728, 17.5768, 6.096,                !- X,Y,Z Vertex 1 {m}
  10.9728, 18.796, 6.096,                 !- X,Y,Z Vertex 2 {m}
  9.7536, 18.796, 6.096,                  !- X,Y,Z Vertex 3 {m}
  9.7536, 17.5768, 6.096;                 !- X,Y,Z Vertex 4 {m}

OS:SubSurface,
  {934ba61d-05cc-4ff8-9032-c40f2a8537da}, !- Handle
  Skylights_r1c2,                         !- Name
  Skylight,                               !- Sub Surface Type
  ,                                       !- Construction Name
  {007c4110-77bc-466f-ac9b-021f9a1a4397}, !- Surface Name
  ,                                       !- Outside Boundary Condition Object
  ,                                       !- View Factor to Ground
  ,                                       !- Shading Control Name
  ,                                       !- Frame and Divider Name
  ,                                       !- Multiplier
  ,                                       !- Number of Vertices
  10.9728, 3.3528, 6.096,                 !- X,Y,Z Vertex 1 {m}
  10.9728, 4.572, 6.096,                  !- X,Y,Z Vertex 2 {m}
  9.7536, 4.572, 6.096,                   !- X,Y,Z Vertex 3 {m}
  9.7536, 3.3528, 6.096;                  !- X,Y,Z Vertex 4 {m}

OS:SubSurface,
  {11270b89-deda-42b7-8f5b-f3c6acf585ca}, !- Handle
  Skylights_r3c4,                         !- Name
  Skylight,                               !- Sub Surface Type
  ,                                       !- Construction Name
  {007c4110-77bc-466f-ac9b-021f9a1a4397}, !- Surface Name
  ,                                       !- Outside Boundary Condition Object
  ,                                       !- View Factor to Ground
  ,                                       !- Shading Control Name
  ,                                       !- Frame and Divider Name
  ,                                       !- Multiplier
  ,                                       !- Number of Vertices
  23.7822, 17.5768, 6.096,                !- X,Y,Z Vertex 1 {m}
  23.7822, 18.796, 6.096,                 !- X,Y,Z Vertex 2 {m}
  22.563, 18.796, 6.096,                  !- X,Y,Z Vertex 3 {m}
  22.563, 17.5768, 6.096;                 !- X,Y,Z Vertex 4 {m}

OS:SubSurface,
  {703e747f-4aee-4bb6-b0b2-382e73a4b055}, !- Handle
  Skylights_r4c4,                         !- Name
  Skylight,                               !- Sub Surface Type
  ,                                       !- Construction Name
  {007c4110-77bc-466f-ac9b-021f9a1a4397}, !- Surface Name
  ,                                       !- Outside Boundary Condition Object
  ,                                       !- View Factor to Ground
  ,                                       !- Shading Control Name
  ,                                       !- Frame and Divider Name
  ,                                       !- Multiplier
  ,                                       !- Number of Vertices
  23.7822, 24.698, 6.096,                 !- X,Y,Z Vertex 1 {m}
  23.7822, 25.9172, 6.096,                !- X,Y,Z Vertex 2 {m}
  22.563, 25.9172, 6.096,                 !- X,Y,Z Vertex 3 {m}
  22.563, 24.698, 6.096;                  !- X,Y,Z Vertex 4 {m}

OS:SubSurface,
  {848261d7-4d9a-4dca-acfb-90ce828e91d0}, !- Handle
  Skylights_r2c2,                         !- Name
  Skylight,                               !- Sub Surface Type
  ,                                       !- Construction Name
  {007c4110-77bc-466f-ac9b-021f9a1a4397}, !- Surface Name
  ,                                       !- Outside Boundary Condition Object
  ,                                       !- View Factor to Ground
  ,                                       !- Shading Control Name
  ,                                       !- Frame and Divider Name
  ,                                       !- Multiplier
  ,                                       !- Number of Vertices
  10.9728, 10.4648, 6.096,                !- X,Y,Z Vertex 1 {m}
  10.9728, 11.684, 6.096,                 !- X,Y,Z Vertex 2 {m}
  9.7536, 11.684, 6.096,                  !- X,Y,Z Vertex 3 {m}
  9.7536, 10.4648, 6.096;                 !- X,Y,Z Vertex 4 {m}

OS:SubSurface,
  {e39180f2-1ea3-4914-bc3d-5fb94a696f6b}, !- Handle
  Skylights_r1c4,                         !- Name
  Skylight,                               !- Sub Surface Type
  ,                                       !- Construction Name
  {007c4110-77bc-466f-ac9b-021f9a1a4397}, !- Surface Name
  ,                                       !- Outside Boundary Condition Object
  ,                                       !- View Factor to Ground
  ,                                       !- Shading Control Name
  ,                                       !- Frame and Divider Name
  ,                                       !- Multiplier
  ,                                       !- Number of Vertices
  23.7822, 3.3528, 6.096,                 !- X,Y,Z Vertex 1 {m}
  23.7822, 4.572, 6.096,                  !- X,Y,Z Vertex 2 {m}
  22.563, 4.572, 6.096,                   !- X,Y,Z Vertex 3 {m}
  22.563, 3.3528, 6.096;                  !- X,Y,Z Vertex 4 {m}

OS:SubSurface,
  {2b053269-96e9-43d6-b1ae-d1270e15891b}, !- Handle
  Skylights_r4c2,                         !- Name
  Skylight,                               !- Sub Surface Type
  ,                                       !- Construction Name
  {007c4110-77bc-466f-ac9b-021f9a1a4397}, !- Surface Name
  ,                                       !- Outside Boundary Condition Object
  ,                                       !- View Factor to Ground
  ,                                       !- Shading Control Name
  ,                                       !- Frame and Divider Name
  ,                                       !- Multiplier
  ,                                       !- Number of Vertices
  10.9728, 24.698, 6.096,                 !- X,Y,Z Vertex 1 {m}
  10.9728, 25.9172, 6.096,                !- X,Y,Z Vertex 2 {m}
  9.7536, 25.9172, 6.096,                 !- X,Y,Z Vertex 3 {m}
  9.7536, 24.698, 6.096;                  !- X,Y,Z Vertex 4 {m}

